data_piyzaz
_symmetry_space_group_name_H-M    'P1'
_symmetry_Int_Tables_number       1
_symmetry_cell_setting            triclinic
_cell_length_a                    8.9950
_cell_length_b                    8.9950
_cell_length_c                    8.9950
_cell_angle_alpha                60.0000
_cell_angle_beta                 60.0000
_cell_angle_gamma                60.0000
loop_
_atom_site_label
_atom_site_type_symbol
_atom_site_fract_x
_atom_site_fract_y
_atom_site_fract_z
Cd0    Cd  0.1250  0.6250  0.6250
Cd1    Cd  0.8750  0.3750  0.3750
C2     C  0.0265  0.9204  0.5265
C3     C  0.4204  0.5265  0.5265
C4     C  0.0265  0.5265  0.5265
C5     C  0.0265  0.5265  0.9204
C6     C  0.5796  0.4735  0.4735
C7     C  0.9735  0.0796  0.4735
C8     C  0.9735  0.4735  0.4735
C9     C  0.9735  0.4735  0.0796
